<?xml version='1.0' encoding='UTF-8'?>
<configuration xmlns:xsi="http://www.w3.org/2001/XMLSchema-instance" xsi:noNamespaceSchemaLocation="http://sumo.dlr.de/xsd/netconvertConfiguration.xsd">
  <input>
    <node-files value="grid_0_3x3_i300_multiagent_20190904-1753281567587208.316804.nod.xml"/>
    <edge-files value="grid_0_3x3_i300_multiagent_20190904-1753281567587208.316804.edg.xml"/>
    <type-files value="grid_0_3x3_i300_multiagent_20190904-1753281567587208.316804.typ.xml"/>
    <connection-files value="grid_0_3x3_i300_multiagent_20190904-1753281567587208.316804.con.xml"/>
  </input>
  <output>
    <output-file value="grid_0_3x3_i300_multiagent_20190904-1753281567587208.316804.net.xml"/>
  </output>
  <processing>
    <no-internal-links value="false"/>
    <no-turnarounds value="true"/>
  </processing>
</configuration>
