<?xml version='1.0' encoding='UTF-8'?>
<edges xmlns:xsi="http://www.w3.org/2001/XMLSchema-instance" xsi:noNamespaceSchemaLocation="http://sumo.dlr.de/xsd/edges_file.xsd">
  <edge from="1" id="0" length="25" priority="78" to="0" type="lane"/>
  <edge from="2" id="1_0" length="15" priority="78" to="1" type="lane"/>
  <edge from="4" id="1_1" length="40" priority="78" to="2" type="lane"/>
  <edge from="3" id="2_0" length="15" priority="78" to="1" type="lane"/>
  <edge from="5" id="2_1" length="40" priority="78" to="3" type="lane"/>
  <edge from="6" id="3_0" length="10" priority="78" to="4" type="lane"/>
  <edge from="10" id="3_1" length="40" priority="78" to="6" type="lane"/>
  <edge from="11" id="3_2" length="10" priority="78" to="10" type="lane"/>
  <edge from="7" id="4_0" length="10" priority="78" to="4" type="lane"/>
  <edge from="12" id="4_1" length="40" priority="78" to="7" type="lane"/>
  <edge from="11" id="4_2" length="10" priority="78" to="12" type="lane"/>
  <edge from="8" id="5_0" length="10" priority="78" to="5" type="lane"/>
  <edge from="13" id="5_1" length="40" priority="78" to="8" type="lane"/>
  <edge from="14" id="5_2" length="10" priority="78" to="13" type="lane"/>
  <edge from="9" id="6_0" length="10" priority="78" to="5" type="lane"/>
  <edge from="15" id="6_1" length="40" priority="78" to="9" type="lane"/>
  <edge from="14" id="6_2" length="10" priority="78" to="15" type="lane"/>
  <edge from="16" id="7_0" length="10" priority="78" to="11" type="lane"/>
  <edge from="18" id="7_1" length="20" priority="78" to="16" type="lane"/>
  <edge from="20" id="7_2" length="115" priority="78" to="18" type="lane"/>
  <edge from="0" id="7_3" length="35" priority="78" to="20" type="lane"/>
  <edge from="17" id="8_0" length="10" priority="78" to="14" type="lane"/>
  <edge from="19" id="8_1" length="20" priority="78" to="17" type="lane"/>
  <edge from="21" id="8_2" length="115" priority="78" to="19" type="lane"/>
  <edge from="0" id="8_3" length="35" priority="78" to="21" type="lane"/>
</edges>
