<?xml version="1.0" encoding="UTF-8"?>

<!-- generated on Mon Sep  9 19:06:39 2019 by Eclipse SUMO netconvert Version 1.1.0
<configuration xmlns:xsi="http://www.w3.org/2001/XMLSchema-instance" xsi:noNamespaceSchemaLocation="http://sumo.dlr.de/xsd/netconvertConfiguration.xsd">

    <input>
        <node-files value="/Users/leehoon/2019/Summer_intern/flow/flow/core/kernel/scenario/debug/net/my_multi_green_wave_20190909-1906391568023599.648524.nod.xml"/>
        <edge-files value="/Users/leehoon/2019/Summer_intern/flow/flow/core/kernel/scenario/debug/net/my_multi_green_wave_20190909-1906391568023599.648524.edg.xml"/>
        <type-files value="/Users/leehoon/2019/Summer_intern/flow/flow/core/kernel/scenario/debug/net/my_multi_green_wave_20190909-1906391568023599.648524.typ.xml"/>
    </input>

    <output>
        <output-file value="/Users/leehoon/2019/Summer_intern/flow/flow/core/kernel/scenario/debug/cfg/my_multi_green_wave_20190909-1906391568023599.648524.net.xml"/>
    </output>

    <junctions>
        <no-internal-links value="false"/>
        <no-turnarounds value="true"/>
    </junctions>

</configuration>
-->

<net version="1.1" junctionCornerDetail="5" limitTurnSpeed="5.50" xmlns:xsi="http://www.w3.org/2001/XMLSchema-instance" xsi:noNamespaceSchemaLocation="http://sumo.dlr.de/xsd/net_file.xsd">

    <location netOffset="0.00,35.00" convBoundary="0.00,0.00,115.00,70.00" origBoundary="0.00,-35.00,115.00,35.00" projParameter="!"/>

    <type id="lane" numLanes="1" speed="10.00"/>

    <edge id=":0_0" function="internal">
        <lane id=":0_0_0" index="0" speed="6.51" length="9.03" shape="7.20,36.60 4.75,36.95 3.00,38.00 1.95,39.75 1.60,42.20"/>
    </edge>
    <edge id=":0_1" function="internal">
        <lane id=":0_1_0" index="0" speed="7.33" length="11.73" shape="7.20,36.60 3.35,36.25 0.60,35.20 -1.05,33.45 -1.60,31.00"/>
    </edge>
    <edge id=":1_0" function="internal">
        <lane id=":1_0_0" index="0" speed="6.51" length="9.03" shape="23.40,42.20 23.05,39.75 22.00,38.00 20.25,36.95 17.80,36.60"/>
    </edge>
    <edge id=":1_1" function="internal">
        <lane id=":1_1_0" index="0" speed="7.33" length="7.50" shape="26.60,31.00 26.05,33.45 24.40,35.20 21.98,36.12"/>
    </edge>
    <edge id=":1_2" function="internal">
        <lane id=":1_2_0" index="0" speed="7.33" length="4.22" shape="21.98,36.12 21.65,36.25 17.80,36.60"/>
    </edge>
    <edge id=":10_0" function="internal">
        <lane id=":10_0_0" index="0" speed="3.90" length="2.58" shape="106.60,60.00 106.50,60.70 106.20,61.20 105.70,61.50 105.00,61.60"/>
    </edge>
    <edge id=":11_0" function="internal">
        <lane id=":11_0_0" index="0" speed="6.40" length="8.71" shape="111.80,51.60 109.53,51.95 107.90,53.00 106.92,54.75 106.60,57.20"/>
    </edge>
    <edge id=":11_1" function="internal">
        <lane id=":11_1_0" index="0" speed="7.23" length="11.38" shape="111.80,51.60 108.13,51.25 105.50,50.20 103.93,48.45 103.40,46.00"/>
    </edge>
    <edge id=":12_0" function="internal">
        <lane id=":12_0_0" index="0" speed="3.90" length="2.58" shape="103.40,43.20 103.30,42.50 103.00,42.00 102.50,41.70 101.80,41.60"/>
    </edge>
    <edge id=":13_0" function="internal">
        <lane id=":13_0_0" index="0" speed="3.90" length="2.58" shape="106.60,30.00 106.50,30.70 106.20,31.20 105.70,31.50 105.00,31.60"/>
    </edge>
    <edge id=":14_0" function="internal">
        <lane id=":14_0_0" index="0" speed="6.51" length="9.03" shape="112.20,21.60 109.75,21.95 108.00,23.00 106.95,24.75 106.60,27.20"/>
    </edge>
    <edge id=":14_1" function="internal">
        <lane id=":14_1_0" index="0" speed="7.33" length="11.73" shape="112.20,21.60 108.35,21.25 105.60,20.20 103.95,18.45 103.40,16.00"/>
    </edge>
    <edge id=":15_0" function="internal">
        <lane id=":15_0_0" index="0" speed="3.90" length="2.58" shape="103.40,13.20 103.30,12.50 103.00,12.00 102.50,11.70 101.80,11.60"/>
    </edge>
    <edge id=":16_0" function="internal">
        <lane id=":16_0_0" index="0" speed="3.73" length="2.27" shape="113.40,53.20 113.33,52.50 113.10,52.00 112.72,51.70 112.20,51.60"/>
    </edge>
    <edge id=":17_0" function="internal">
        <lane id=":17_0_0" index="0" speed="3.90" length="2.58" shape="116.60,20.00 116.50,20.70 116.20,21.20 115.70,21.50 115.00,21.60"/>
    </edge>
    <edge id=":18_0" function="internal">
        <lane id=":18_0_0" index="0" speed="3.90" length="2.58" shape="111.80,68.40 112.50,68.30 113.00,68.00 113.30,67.50 113.40,66.80"/>
    </edge>
    <edge id=":19_0" function="internal">
        <lane id=":19_0_0" index="0" speed="3.90" length="2.58" shape="115.00,-1.60 115.70,-1.50 116.20,-1.20 116.50,-0.70 116.60,0.00"/>
    </edge>
    <edge id=":2_0" function="internal">
        <lane id=":2_0_0" index="0" speed="3.90" length="2.58" shape="25.00,51.60 24.30,51.50 23.80,51.20 23.50,50.70 23.40,50.00"/>
    </edge>
    <edge id=":20_0" function="internal">
        <lane id=":20_0_0" index="0" speed="3.90" length="2.58" shape="1.60,66.80 1.70,67.50 2.00,68.00 2.50,68.30 3.20,68.40"/>
    </edge>
    <edge id=":21_0" function="internal">
        <lane id=":21_0_0" index="0" speed="3.90" length="2.58" shape="-1.60,0.00 -1.50,-0.70 -1.20,-1.20 -0.70,-1.50 0.00,-1.60"/>
    </edge>
    <edge id=":3_0" function="internal">
        <lane id=":3_0_0" index="0" speed="3.90" length="2.58" shape="28.20,21.60 27.50,21.70 27.00,22.00 26.70,22.50 26.60,23.20"/>
    </edge>
    <edge id=":4_0" function="internal">
        <lane id=":4_0_0" index="0" speed="6.51" length="9.03" shape="63.40,57.20 63.05,54.75 62.00,53.00 60.25,51.95 57.80,51.60"/>
    </edge>
    <edge id=":4_1" function="internal">
        <lane id=":4_1_0" index="0" speed="7.33" length="7.50" shape="66.60,46.00 66.05,48.45 64.40,50.20 61.98,51.12"/>
    </edge>
    <edge id=":4_2" function="internal">
        <lane id=":4_2_0" index="0" speed="7.33" length="4.22" shape="61.98,51.12 61.65,51.25 57.80,51.60"/>
    </edge>
    <edge id=":5_0" function="internal">
        <lane id=":5_0_0" index="0" speed="6.51" length="9.03" shape="63.40,27.20 63.05,24.75 62.00,23.00 60.25,21.95 57.80,21.60"/>
    </edge>
    <edge id=":5_1" function="internal">
        <lane id=":5_1_0" index="0" speed="7.33" length="7.50" shape="66.60,16.00 66.05,18.45 64.40,20.20 61.98,21.12"/>
    </edge>
    <edge id=":5_2" function="internal">
        <lane id=":5_2_0" index="0" speed="7.33" length="4.22" shape="61.98,21.12 61.65,21.25 57.80,21.60"/>
    </edge>
    <edge id=":6_0" function="internal">
        <lane id=":6_0_0" index="0" speed="3.90" length="2.58" shape="65.00,61.60 64.30,61.50 63.80,61.20 63.50,60.70 63.40,60.00"/>
    </edge>
    <edge id=":7_0" function="internal">
        <lane id=":7_0_0" index="0" speed="3.90" length="2.58" shape="68.20,41.60 67.50,41.70 67.00,42.00 66.70,42.50 66.60,43.20"/>
    </edge>
    <edge id=":8_0" function="internal">
        <lane id=":8_0_0" index="0" speed="3.90" length="2.58" shape="65.00,31.60 64.30,31.50 63.80,31.20 63.50,30.70 63.40,30.00"/>
    </edge>
    <edge id=":9_0" function="internal">
        <lane id=":9_0_0" index="0" speed="3.90" length="2.58" shape="68.20,11.60 67.50,11.70 67.00,12.00 66.70,12.50 66.60,13.20"/>
    </edge>

    <edge id="0" from="1" to="0" priority="78" type="lane" length="25.00">
        <lane id="0_0" index="0" speed="10.00" length="25.00" shape="17.80,36.60 7.20,36.60"/>
    </edge>
    <edge id="1_0" from="2" to="1" priority="78" type="lane" length="15.00">
        <lane id="1_0_0" index="0" speed="10.00" length="15.00" shape="23.40,50.00 23.40,42.20"/>
    </edge>
    <edge id="1_1" from="4" to="2" priority="78" type="lane" length="40.00">
        <lane id="1_1_0" index="0" speed="10.00" length="40.00" shape="57.80,51.60 25.00,51.60"/>
    </edge>
    <edge id="2_0" from="3" to="1" priority="78" type="lane" length="15.00">
        <lane id="2_0_0" index="0" speed="10.00" length="15.00" shape="26.60,23.20 26.60,31.00"/>
    </edge>
    <edge id="2_1" from="5" to="3" priority="78" type="lane" length="40.00">
        <lane id="2_1_0" index="0" speed="10.00" length="40.00" shape="57.80,21.60 28.20,21.60"/>
    </edge>
    <edge id="3_0" from="6" to="4" priority="78" type="lane" length="10.00">
        <lane id="3_0_0" index="0" speed="10.00" length="10.00" shape="63.40,60.00 63.40,57.20"/>
    </edge>
    <edge id="3_1" from="10" to="6" priority="78" type="lane" length="40.00">
        <lane id="3_1_0" index="0" speed="10.00" length="40.00" shape="105.00,61.60 65.00,61.60"/>
    </edge>
    <edge id="3_2" from="11" to="10" priority="78" type="lane" length="10.00">
        <lane id="3_2_0" index="0" speed="10.00" length="10.00" shape="106.60,57.20 106.60,60.00"/>
    </edge>
    <edge id="4_0" from="7" to="4" priority="78" type="lane" length="10.00">
        <lane id="4_0_0" index="0" speed="10.00" length="10.00" shape="66.60,43.20 66.60,46.00"/>
    </edge>
    <edge id="4_1" from="12" to="7" priority="78" type="lane" length="40.00">
        <lane id="4_1_0" index="0" speed="10.00" length="40.00" shape="101.80,41.60 68.20,41.60"/>
    </edge>
    <edge id="4_2" from="11" to="12" priority="78" type="lane" length="10.00">
        <lane id="4_2_0" index="0" speed="10.00" length="10.00" shape="103.40,46.00 103.40,43.20"/>
    </edge>
    <edge id="5_0" from="8" to="5" priority="78" type="lane" length="10.00">
        <lane id="5_0_0" index="0" speed="10.00" length="10.00" shape="63.40,30.00 63.40,27.20"/>
    </edge>
    <edge id="5_1" from="13" to="8" priority="78" type="lane" length="40.00">
        <lane id="5_1_0" index="0" speed="10.00" length="40.00" shape="105.00,31.60 65.00,31.60"/>
    </edge>
    <edge id="5_2" from="14" to="13" priority="78" type="lane" length="10.00">
        <lane id="5_2_0" index="0" speed="10.00" length="10.00" shape="106.60,27.20 106.60,30.00"/>
    </edge>
    <edge id="6_0" from="9" to="5" priority="78" type="lane" length="10.00">
        <lane id="6_0_0" index="0" speed="10.00" length="10.00" shape="66.60,13.20 66.60,16.00"/>
    </edge>
    <edge id="6_1" from="15" to="9" priority="78" type="lane" length="40.00">
        <lane id="6_1_0" index="0" speed="10.00" length="40.00" shape="101.80,11.60 68.20,11.60"/>
    </edge>
    <edge id="6_2" from="14" to="15" priority="78" type="lane" length="10.00">
        <lane id="6_2_0" index="0" speed="10.00" length="10.00" shape="103.40,16.00 103.40,13.20"/>
    </edge>
    <edge id="7_0" from="16" to="11" priority="78" type="lane" length="10.00">
        <lane id="7_0_0" index="0" speed="10.00" length="10.00" shape="112.20,51.60 111.80,51.60"/>
    </edge>
    <edge id="7_1" from="18" to="16" priority="78" type="lane" length="20.00">
        <lane id="7_1_0" index="0" speed="10.00" length="20.00" shape="113.40,66.80 113.40,53.20"/>
    </edge>
    <edge id="7_2" from="20" to="18" priority="78" type="lane" length="115.00">
        <lane id="7_2_0" index="0" speed="10.00" length="115.00" shape="3.20,68.40 111.80,68.40"/>
    </edge>
    <edge id="7_3" from="0" to="20" priority="78" type="lane" length="35.00">
        <lane id="7_3_0" index="0" speed="10.00" length="35.00" shape="1.60,42.20 1.60,66.80"/>
    </edge>
    <edge id="8_0" from="17" to="14" priority="78" type="lane" length="10.00">
        <lane id="8_0_0" index="0" speed="10.00" length="10.00" shape="115.00,21.60 112.20,21.60"/>
    </edge>
    <edge id="8_1" from="19" to="17" priority="78" type="lane" length="20.00">
        <lane id="8_1_0" index="0" speed="10.00" length="20.00" shape="116.60,0.00 116.60,20.00"/>
    </edge>
    <edge id="8_2" from="21" to="19" priority="78" type="lane" length="115.00">
        <lane id="8_2_0" index="0" speed="10.00" length="115.00" shape="0.00,-1.60 115.00,-1.60"/>
    </edge>
    <edge id="8_3" from="0" to="21" priority="78" type="lane" length="35.00">
        <lane id="8_3_0" index="0" speed="10.00" length="35.00" shape="-1.60,31.00 -1.60,0.00"/>
    </edge>

    <tlLogic id="1" type="static" programID="0" offset="0">
        <phase duration="78" state="Gg"/>
        <phase duration="3"  state="yg"/>
        <phase duration="6"  state="rG"/>
        <phase duration="3"  state="ry"/>
    </tlLogic>
    <tlLogic id="4" type="static" programID="0" offset="0">
        <phase duration="78" state="Gg"/>
        <phase duration="3"  state="yg"/>
        <phase duration="6"  state="rG"/>
        <phase duration="3"  state="ry"/>
    </tlLogic>
    <tlLogic id="5" type="static" programID="0" offset="0">
        <phase duration="78" state="Gg"/>
        <phase duration="3"  state="yg"/>
        <phase duration="6"  state="rG"/>
        <phase duration="3"  state="ry"/>
    </tlLogic>

    <junction id="0" type="priority" x="0.00" y="35.00" incLanes="0_0" intLanes=":0_0_0 :0_1_0" shape="0.00,42.20 3.20,42.20 3.64,39.98 4.20,39.20 4.98,38.64 5.98,38.31 7.20,38.20 7.20,35.00 5.00,34.89 3.20,34.56 1.80,34.00 0.80,33.22 0.20,32.22 0.00,31.00 -3.20,31.00 -2.96,33.45 -2.37,35.20 -0.83,38.00 -0.24,39.75">
        <request index="0" response="00" foes="00" cont="0"/>
        <request index="1" response="00" foes="00" cont="0"/>
    </junction>
    <junction id="1" type="traffic_light" x="25.00" y="35.00" incLanes="1_0_0 2_0_0" intLanes=":1_0_0 :1_2_0" shape="21.80,42.20 25.00,42.20 25.24,39.75 25.83,38.00 27.37,35.20 27.96,33.45 28.20,31.00 25.00,31.00 24.20,33.22 23.20,34.00 21.80,34.56 20.00,34.89 17.80,35.00 17.80,38.20 20.02,38.64 20.80,39.20 21.36,39.98 21.69,40.98">
        <request index="0" response="00" foes="10" cont="0"/>
        <request index="1" response="01" foes="01" cont="1"/>
    </junction>
    <junction id="10" type="priority" x="105.00" y="60.00" incLanes="3_2_0" intLanes=":10_0_0" shape="108.20,60.00 105.00,60.00 105.00,63.20 106.78,62.84 107.40,62.40 107.84,61.78 108.11,60.98">
        <request index="0" response="0" foes="0" cont="0"/>
    </junction>
    <junction id="11" type="priority" x="105.00" y="50.00" incLanes="7_0_0" intLanes=":11_0_0 :11_1_0" shape="105.00,57.20 108.20,57.20 108.64,54.98 109.20,54.20 109.98,53.64 110.98,53.31 112.20,53.20 112.20,50.00 110.00,49.89 108.20,49.56 106.80,49.00 105.80,48.22 105.20,47.22 105.00,46.00 101.80,46.00 102.04,48.45 102.63,50.20 104.17,53.00 104.76,54.75">
        <request index="0" response="00" foes="00" cont="0"/>
        <request index="1" response="00" foes="00" cont="0"/>
    </junction>
    <junction id="12" type="priority" x="105.00" y="40.00" incLanes="4_2_0" intLanes=":12_0_0" shape="101.80,43.20 105.00,43.20 104.64,41.42 104.20,40.80 103.58,40.36 102.78,40.09 101.80,40.00">
        <request index="0" response="0" foes="0" cont="0"/>
    </junction>
    <junction id="13" type="priority" x="105.00" y="30.00" incLanes="5_2_0" intLanes=":13_0_0" shape="108.20,30.00 105.00,30.00 105.00,33.20 106.78,32.84 107.40,32.40 107.84,31.78 108.11,30.98">
        <request index="0" response="0" foes="0" cont="0"/>
    </junction>
    <junction id="14" type="priority" x="105.00" y="20.00" incLanes="8_0_0" intLanes=":14_0_0 :14_1_0" shape="105.00,27.20 108.20,27.20 108.64,24.98 109.20,24.20 109.98,23.64 110.98,23.31 112.20,23.20 112.20,20.00 110.00,19.89 108.20,19.56 106.80,19.00 105.80,18.22 105.20,17.22 105.00,16.00 101.80,16.00 102.04,18.45 102.63,20.20 104.17,23.00 104.76,24.75">
        <request index="0" response="00" foes="00" cont="0"/>
        <request index="1" response="00" foes="00" cont="0"/>
    </junction>
    <junction id="15" type="priority" x="105.00" y="10.00" incLanes="6_2_0" intLanes=":15_0_0" shape="101.80,13.20 105.00,13.20 104.64,11.42 104.20,10.80 103.58,10.36 102.78,10.09 101.80,10.00">
        <request index="0" response="0" foes="0" cont="0"/>
    </junction>
    <junction id="16" type="priority" x="115.00" y="50.00" incLanes="7_1_0" intLanes=":16_0_0" shape="111.80,53.20 115.00,53.20 114.64,51.42 114.20,50.80 113.58,50.36 112.78,50.09 111.80,50.00">
        <request index="0" response="0" foes="0" cont="0"/>
    </junction>
    <junction id="17" type="priority" x="115.00" y="20.00" incLanes="8_1_0" intLanes=":17_0_0" shape="118.20,20.00 115.00,20.00 115.00,23.20 116.78,22.84 117.40,22.40 117.84,21.78 118.11,20.98">
        <request index="0" response="0" foes="0" cont="0"/>
    </junction>
    <junction id="18" type="priority" x="115.00" y="70.00" incLanes="7_2_0" intLanes=":18_0_0" shape="115.00,66.80 111.80,66.80 111.80,70.00 113.58,69.64 114.20,69.20 114.64,68.58 114.91,67.78">
        <request index="0" response="0" foes="0" cont="0"/>
    </junction>
    <junction id="19" type="priority" x="115.00" y="0.00" incLanes="8_2_0" intLanes=":19_0_0" shape="115.00,0.00 118.20,0.00 117.84,-1.78 117.40,-2.40 116.78,-2.84 115.98,-3.11 115.00,-3.20">
        <request index="0" response="0" foes="0" cont="0"/>
    </junction>
    <junction id="2" type="priority" x="25.00" y="50.00" incLanes="1_1_0" intLanes=":2_0_0" shape="25.00,53.20 25.00,50.00 21.80,50.00 22.16,51.78 22.60,52.40 23.22,52.84 24.02,53.11">
        <request index="0" response="0" foes="0" cont="0"/>
    </junction>
    <junction id="20" type="priority" x="0.00" y="70.00" incLanes="7_3_0" intLanes=":20_0_0" shape="3.20,70.00 3.20,66.80 0.00,66.80 0.36,68.58 0.80,69.20 1.42,69.64 2.22,69.91">
        <request index="0" response="0" foes="0" cont="0"/>
    </junction>
    <junction id="21" type="priority" x="0.00" y="0.00" incLanes="8_3_0" intLanes=":21_0_0" shape="-3.20,0.00 0.00,0.00 0.00,-3.20 -1.78,-2.84 -2.40,-2.40 -2.84,-1.78 -3.11,-0.98">
        <request index="0" response="0" foes="0" cont="0"/>
    </junction>
    <junction id="3" type="priority" x="25.00" y="20.00" incLanes="2_1_0" intLanes=":3_0_0" shape="25.00,23.20 28.20,23.20 28.20,20.00 26.42,20.36 25.80,20.80 25.36,21.42 25.09,22.22">
        <request index="0" response="0" foes="0" cont="0"/>
    </junction>
    <junction id="4" type="traffic_light" x="65.00" y="50.00" incLanes="3_0_0 4_0_0" intLanes=":4_0_0 :4_2_0" shape="61.80,57.20 65.00,57.20 65.24,54.75 65.83,53.00 67.37,50.20 67.96,48.45 68.20,46.00 65.00,46.00 64.20,48.22 63.20,49.00 61.80,49.56 60.00,49.89 57.80,50.00 57.80,53.20 60.02,53.64 60.80,54.20 61.36,54.98 61.69,55.98">
        <request index="0" response="00" foes="10" cont="0"/>
        <request index="1" response="01" foes="01" cont="1"/>
    </junction>
    <junction id="5" type="traffic_light" x="65.00" y="20.00" incLanes="5_0_0 6_0_0" intLanes=":5_0_0 :5_2_0" shape="61.80,27.20 65.00,27.20 65.24,24.75 65.83,23.00 67.37,20.20 67.96,18.45 68.20,16.00 65.00,16.00 64.20,18.22 63.20,19.00 61.80,19.56 60.00,19.89 57.80,20.00 57.80,23.20 60.02,23.64 60.80,24.20 61.36,24.98 61.69,25.98">
        <request index="0" response="00" foes="10" cont="0"/>
        <request index="1" response="01" foes="01" cont="1"/>
    </junction>
    <junction id="6" type="priority" x="65.00" y="60.00" incLanes="3_1_0" intLanes=":6_0_0" shape="65.00,63.20 65.00,60.00 61.80,60.00 62.16,61.78 62.60,62.40 63.22,62.84 64.02,63.11">
        <request index="0" response="0" foes="0" cont="0"/>
    </junction>
    <junction id="7" type="priority" x="65.00" y="40.00" incLanes="4_1_0" intLanes=":7_0_0" shape="65.00,43.20 68.20,43.20 68.20,40.00 66.42,40.36 65.80,40.80 65.36,41.42 65.09,42.22">
        <request index="0" response="0" foes="0" cont="0"/>
    </junction>
    <junction id="8" type="priority" x="65.00" y="30.00" incLanes="5_1_0" intLanes=":8_0_0" shape="65.00,33.20 65.00,30.00 61.80,30.00 62.16,31.78 62.60,32.40 63.22,32.84 64.02,33.11">
        <request index="0" response="0" foes="0" cont="0"/>
    </junction>
    <junction id="9" type="priority" x="65.00" y="10.00" incLanes="6_1_0" intLanes=":9_0_0" shape="65.00,13.20 68.20,13.20 68.20,10.00 66.42,10.36 65.80,10.80 65.36,11.42 65.09,12.22">
        <request index="0" response="0" foes="0" cont="0"/>
    </junction>

    <junction id=":1_2_0" type="internal" x="21.98" y="36.12" incLanes=":1_1_0 1_0_0" intLanes=":1_0_0"/>
    <junction id=":4_2_0" type="internal" x="61.98" y="51.12" incLanes=":4_1_0 3_0_0" intLanes=":4_0_0"/>
    <junction id=":5_2_0" type="internal" x="61.98" y="21.12" incLanes=":5_1_0 5_0_0" intLanes=":5_0_0"/>

    <connection from="0" to="7_3" fromLane="0" toLane="0" via=":0_0_0" dir="r" state="M"/>
    <connection from="0" to="8_3" fromLane="0" toLane="0" via=":0_1_0" dir="l" state="M"/>
    <connection from="1_0" to="0" fromLane="0" toLane="0" via=":1_0_0" tl="1" linkIndex="0" dir="r" state="O"/>
    <connection from="1_1" to="1_0" fromLane="0" toLane="0" via=":2_0_0" dir="l" state="M"/>
    <connection from="2_0" to="0" fromLane="0" toLane="0" via=":1_1_0" tl="1" linkIndex="1" dir="l" state="o"/>
    <connection from="2_1" to="2_0" fromLane="0" toLane="0" via=":3_0_0" dir="r" state="M"/>
    <connection from="3_0" to="1_1" fromLane="0" toLane="0" via=":4_0_0" tl="4" linkIndex="0" dir="r" state="O"/>
    <connection from="3_1" to="3_0" fromLane="0" toLane="0" via=":6_0_0" dir="l" state="M"/>
    <connection from="3_2" to="3_1" fromLane="0" toLane="0" via=":10_0_0" dir="l" state="M"/>
    <connection from="4_0" to="1_1" fromLane="0" toLane="0" via=":4_1_0" tl="4" linkIndex="1" dir="l" state="o"/>
    <connection from="4_1" to="4_0" fromLane="0" toLane="0" via=":7_0_0" dir="r" state="M"/>
    <connection from="4_2" to="4_1" fromLane="0" toLane="0" via=":12_0_0" dir="r" state="M"/>
    <connection from="5_0" to="2_1" fromLane="0" toLane="0" via=":5_0_0" tl="5" linkIndex="0" dir="r" state="O"/>
    <connection from="5_1" to="5_0" fromLane="0" toLane="0" via=":8_0_0" dir="l" state="M"/>
    <connection from="5_2" to="5_1" fromLane="0" toLane="0" via=":13_0_0" dir="l" state="M"/>
    <connection from="6_0" to="2_1" fromLane="0" toLane="0" via=":5_1_0" tl="5" linkIndex="1" dir="l" state="o"/>
    <connection from="6_1" to="6_0" fromLane="0" toLane="0" via=":9_0_0" dir="r" state="M"/>
    <connection from="6_2" to="6_1" fromLane="0" toLane="0" via=":15_0_0" dir="r" state="M"/>
    <connection from="7_0" to="3_2" fromLane="0" toLane="0" via=":11_0_0" dir="r" state="M"/>
    <connection from="7_0" to="4_2" fromLane="0" toLane="0" via=":11_1_0" dir="l" state="M"/>
    <connection from="7_1" to="7_0" fromLane="0" toLane="0" via=":16_0_0" dir="r" state="M"/>
    <connection from="7_2" to="7_1" fromLane="0" toLane="0" via=":18_0_0" dir="r" state="M"/>
    <connection from="7_3" to="7_2" fromLane="0" toLane="0" via=":20_0_0" dir="r" state="M"/>
    <connection from="8_0" to="5_2" fromLane="0" toLane="0" via=":14_0_0" dir="r" state="M"/>
    <connection from="8_0" to="6_2" fromLane="0" toLane="0" via=":14_1_0" dir="l" state="M"/>
    <connection from="8_1" to="8_0" fromLane="0" toLane="0" via=":17_0_0" dir="l" state="M"/>
    <connection from="8_2" to="8_1" fromLane="0" toLane="0" via=":19_0_0" dir="l" state="M"/>
    <connection from="8_3" to="8_2" fromLane="0" toLane="0" via=":21_0_0" dir="l" state="M"/>

    <connection from=":0_0" to="7_3" fromLane="0" toLane="0" dir="r" state="M"/>
    <connection from=":0_1" to="8_3" fromLane="0" toLane="0" dir="l" state="M"/>
    <connection from=":1_0" to="0" fromLane="0" toLane="0" dir="r" state="M"/>
    <connection from=":1_1" to="0" fromLane="0" toLane="0" via=":1_2_0" dir="l" state="m"/>
    <connection from=":1_2" to="0" fromLane="0" toLane="0" dir="l" state="M"/>
    <connection from=":10_0" to="3_1" fromLane="0" toLane="0" dir="l" state="M"/>
    <connection from=":11_0" to="3_2" fromLane="0" toLane="0" dir="r" state="M"/>
    <connection from=":11_1" to="4_2" fromLane="0" toLane="0" dir="l" state="M"/>
    <connection from=":12_0" to="4_1" fromLane="0" toLane="0" dir="r" state="M"/>
    <connection from=":13_0" to="5_1" fromLane="0" toLane="0" dir="l" state="M"/>
    <connection from=":14_0" to="5_2" fromLane="0" toLane="0" dir="r" state="M"/>
    <connection from=":14_1" to="6_2" fromLane="0" toLane="0" dir="l" state="M"/>
    <connection from=":15_0" to="6_1" fromLane="0" toLane="0" dir="r" state="M"/>
    <connection from=":16_0" to="7_0" fromLane="0" toLane="0" dir="r" state="M"/>
    <connection from=":17_0" to="8_0" fromLane="0" toLane="0" dir="l" state="M"/>
    <connection from=":18_0" to="7_1" fromLane="0" toLane="0" dir="r" state="M"/>
    <connection from=":19_0" to="8_1" fromLane="0" toLane="0" dir="l" state="M"/>
    <connection from=":2_0" to="1_0" fromLane="0" toLane="0" dir="l" state="M"/>
    <connection from=":20_0" to="7_2" fromLane="0" toLane="0" dir="r" state="M"/>
    <connection from=":21_0" to="8_2" fromLane="0" toLane="0" dir="l" state="M"/>
    <connection from=":3_0" to="2_0" fromLane="0" toLane="0" dir="r" state="M"/>
    <connection from=":4_0" to="1_1" fromLane="0" toLane="0" dir="r" state="M"/>
    <connection from=":4_1" to="1_1" fromLane="0" toLane="0" via=":4_2_0" dir="l" state="m"/>
    <connection from=":4_2" to="1_1" fromLane="0" toLane="0" dir="l" state="M"/>
    <connection from=":5_0" to="2_1" fromLane="0" toLane="0" dir="r" state="M"/>
    <connection from=":5_1" to="2_1" fromLane="0" toLane="0" via=":5_2_0" dir="l" state="m"/>
    <connection from=":5_2" to="2_1" fromLane="0" toLane="0" dir="l" state="M"/>
    <connection from=":6_0" to="3_0" fromLane="0" toLane="0" dir="l" state="M"/>
    <connection from=":7_0" to="4_0" fromLane="0" toLane="0" dir="r" state="M"/>
    <connection from=":8_0" to="5_0" fromLane="0" toLane="0" dir="l" state="M"/>
    <connection from=":9_0" to="6_0" fromLane="0" toLane="0" dir="r" state="M"/>

</net>
