<?xml version='1.0' encoding='UTF-8'?>
<configuration xmlns:xsi="http://www.w3.org/2001/XMLSchema-instance" xsi:noNamespaceSchemaLocation="http://sumo.dlr.de/xsd/sumoConfiguration.xsd">
  <input>
    <net-file value="my_multi_green_wave_20190906-1443541567748634.23989.net.xml"/>
    <route-files value="my_multi_green_wave_20190906-1443541567748634.23989.rou.xml"/>
    <additional-files value="my_multi_green_wave_20190906-1443541567748634.23989.add.xml"/>
    <gui-settings-file value="my_multi_green_wave_20190906-1443541567748634.23989.gui.cfg"/>
  </input>
  <time>
    <begin value="0"/>
  </time>
</configuration>
